Version 4
SHEET 1 1008 680
WIRE 304 -192 0 -192
WIRE 928 -192 304 -192
WIRE 304 -128 304 -192
WIRE 0 -112 0 -192
WIRE 304 16 304 -48
WIRE 304 16 208 16
WIRE 432 16 304 16
WIRE 608 16 496 16
WIRE 208 32 208 16
WIRE 928 64 928 -192
WIRE -240 80 -320 80
WIRE 144 80 -176 80
WIRE 608 112 608 16
WIRE -320 128 -320 80
WIRE 0 160 0 -32
WIRE 208 192 208 128
WIRE 352 192 208 192
WIRE 208 240 208 192
WIRE 352 256 352 192
WIRE -320 272 -320 208
WIRE 0 336 0 240
WIRE 0 336 -16 336
WIRE 608 336 608 192
WIRE 608 336 592 336
WIRE -320 432 -320 352
WIRE -16 432 -16 336
WIRE -16 432 -320 432
WIRE 208 432 208 320
WIRE 208 432 -16 432
WIRE 352 432 352 320
WIRE 352 432 208 432
WIRE 592 432 592 336
WIRE 592 432 352 432
WIRE 928 432 928 144
WIRE 928 432 592 432
WIRE -320 448 -320 432
FLAG -320 448 0
DATAFLAG 384 -192 "$-V(N002)"
SYMBOL npn 144 32 R0
SYMATTR InstName Q1
SYMATTR Value BC547C
SYMBOL voltage -320 256 R0
WINDOW 3 24 44 Left 2
WINDOW 123 24 72 Left 2
WINDOW 39 0 0 Left 0
SYMATTR InstName V1
SYMATTR Value SINE(0 0.02 10k)
SYMATTR Value2 AC 0.05
SYMBOL voltage 928 48 R0
WINDOW 123 0 0 Left 0
WINDOW 39 0 0 Left 0
SYMATTR InstName V2
SYMATTR Value 7.7
SYMBOL res 288 -144 R0
SYMATTR InstName rc
SYMATTR Value 510
SYMBOL res -16 -128 R0
SYMATTR InstName rb1
SYMATTR Value 150k
SYMBOL res -16 144 R0
SYMATTR InstName rb2
SYMATTR Value 91k
SYMBOL res 192 224 R0
SYMATTR InstName re
SYMATTR Value 1300
SYMBOL res 592 96 R0
WINDOW 3 44 100 Left 2
SYMATTR InstName R_L
SYMATTR Value 4700
SYMBOL res -336 112 R0
WINDOW 0 -74 13 Left 2
WINDOW 3 -57 68 Left 2
SYMATTR InstName R_g
SYMATTR Value 7.5k
SYMBOL cap -176 64 R90
WINDOW 0 0 32 VBottom 2
WINDOW 3 32 32 VTop 2
SYMATTR InstName C_1
SYMATTR Value 100n
SYMBOL cap 368 320 R180
WINDOW 0 -56 71 Left 2
WINDOW 3 -31 1 Left 2
SYMATTR InstName C_E
SYMATTR Value 100µ
SYMBOL cap 432 32 R270
WINDOW 0 32 32 VTop 2
WINDOW 3 0 32 VBottom 2
SYMATTR InstName C_2
SYMATTR Value 100n
TEXT -532 576 Left 2 !.tran 0 200u 0 0.1u
