Version 4
SHEET 1 1572 772
WIRE 320 64 -272 64
WIRE -272 128 -272 64
WIRE -144 128 -272 128
WIRE -64 128 -144 128
WIRE 320 128 320 64
WIRE 320 128 272 128
WIRE -272 176 -272 128
WIRE -144 208 -144 128
WIRE -64 208 -144 208
WIRE 528 208 272 208
WIRE 624 208 528 208
WIRE 784 208 704 208
WIRE 928 208 784 208
WIRE 1104 208 1104 176
WIRE 1104 208 928 208
WIRE 1280 208 1104 208
WIRE 784 240 784 208
WIRE 1280 240 1280 208
WIRE 528 256 528 208
WIRE 928 256 928 208
WIRE 1104 256 1104 208
WIRE -272 288 -272 256
WIRE -272 288 -416 288
WIRE -160 288 -272 288
WIRE -64 288 -160 288
WIRE 304 288 272 288
WIRE 384 288 368 288
WIRE -416 336 -416 288
WIRE 384 336 384 288
WIRE -272 352 -272 288
WIRE -160 352 -160 288
WIRE -64 368 -80 368
WIRE 336 368 272 368
WIRE 528 368 528 320
WIRE 784 368 784 304
WIRE 928 368 928 320
WIRE 1280 368 1280 320
WIRE 336 400 336 368
WIRE 1104 400 1104 336
WIRE 1104 400 336 400
WIRE 1104 464 1104 400
WIRE -416 480 -416 416
WIRE -272 480 -272 416
WIRE -160 480 -160 416
WIRE -80 480 -80 368
WIRE 1104 560 1104 544
FLAG -416 480 0
FLAG -272 480 0
FLAG 384 336 0
FLAG 528 368 0
FLAG 784 368 0
FLAG 1104 176 Vo
FLAG 1104 560 0
FLAG 1280 368 0
FLAG -80 480 0
FLAG 928 368 0
FLAG -160 480 0
SYMBOL voltage -416 320 R0
WINDOW 123 0 0 Left 0
WINDOW 39 24 132 Left 2
SYMATTR InstName V1
SYMATTR Value x
SYMBOL res -256 272 R180
WINDOW 0 -48 71 Left 2
WINDOW 3 -30 44 Left 2
SYMATTR InstName RSC
SYMATTR Value x
SYMBOL cap 304 304 R270
WINDOW 0 32 32 VTop 2
WINDOW 3 0 32 VBottom 2
SYMATTR InstName Ct
SYMATTR Value x
SYMBOL schottky 544 320 R180
WINDOW 0 -34 67 Left 2
WINDOW 3 -86 3 Left 2
SYMATTR InstName D1
SYMATTR Value 1N5819
SYMATTR Description Diode
SYMATTR Type diode
SYMBOL ind2 608 224 R270
WINDOW 0 32 56 VTop 2
WINDOW 3 4 56 VBottom 2
SYMATTR InstName L
SYMATTR Value x
SYMATTR SpiceLine Rser=0.5
SYMATTR Type ind
SYMBOL res 1088 240 R0
SYMATTR InstName R2
SYMATTR Value x
SYMBOL res 1088 448 R0
SYMATTR InstName R1
SYMATTR Value x
SYMBOL res 1264 224 R0
SYMATTR InstName R0
SYMATTR Value x
SYMBOL mc34063 176 224 R0
WINDOW 3 -117 181 Left 2
WINDOW 0 -95 -128 Left 2
SYMATTR InstName U1
SYMBOL polcap -288 352 R0
WINDOW 3 25 57 Left 2
SYMATTR Value 220µ
SYMATTR InstName C1
SYMBOL cap 912 256 R0
SYMATTR InstName Co
SYMATTR Value 100n
SYMBOL cap -176 352 R0
SYMATTR InstName C2
SYMATTR Value 100n
SYMBOL polcap 768 240 R0
WINDOW 3 25 57 Left 2
SYMATTR Value 100µ
SYMATTR InstName C0
TEXT -424 592 Left 2 !.tran 0 10m 0 100u uic
TEXT -424 560 Left 2 !.inc MC34063.lib
TEXT -424 528 Left 2 !;.options Gmin=1e-9 method=Gear
