Version 4
SHEET 1 1572 772
WIRE 80 32 -224 32
WIRE 336 32 160 32
WIRE -224 128 -224 32
WIRE -176 128 -224 128
WIRE -64 128 -96 128
WIRE 336 128 336 32
WIRE 336 128 272 128
WIRE 496 128 336 128
WIRE -336 208 -368 208
WIRE -224 208 -224 128
WIRE -224 208 -256 208
WIRE -64 208 -224 208
WIRE 384 208 272 208
WIRE 496 208 496 128
WIRE 560 208 496 208
WIRE 784 208 624 208
WIRE 928 208 784 208
WIRE 1104 208 1104 176
WIRE 1104 208 928 208
WIRE 1376 208 1104 208
WIRE 384 240 384 208
WIRE 784 240 784 208
WIRE 1376 240 1376 208
WIRE 928 256 928 208
WIRE 1104 256 1104 208
WIRE -368 288 -368 208
WIRE -368 288 -512 288
WIRE -256 288 -368 288
WIRE -64 288 -256 288
WIRE 304 288 272 288
WIRE 384 288 368 288
WIRE -512 336 -512 288
WIRE 384 336 384 288
WIRE -368 352 -368 288
WIRE -256 352 -256 288
WIRE -64 368 -96 368
WIRE 336 368 272 368
WIRE 784 368 784 304
WIRE 928 368 928 320
WIRE 1376 368 1376 320
WIRE 1104 384 1104 336
WIRE 1104 384 1056 384
WIRE 336 432 336 368
WIRE 1056 432 1056 384
WIRE 1056 432 336 432
WIRE 1104 464 1104 384
WIRE -512 480 -512 416
WIRE -368 480 -368 416
WIRE -256 480 -256 416
WIRE -96 480 -96 368
WIRE 1104 560 1104 544
FLAG -512 480 0
FLAG -368 480 0
FLAG 384 336 0
FLAG 384 240 0
FLAG 784 368 0
FLAG 1104 176 Vo
FLAG 1104 560 0
FLAG 1376 368 0
FLAG -96 480 0
FLAG 928 368 0
FLAG -256 480 0
SYMBOL voltage -512 320 R0
WINDOW 123 0 0 Left 0
WINDOW 39 24 132 Left 2
SYMATTR InstName V1
SYMATTR Value 3.3
SYMBOL res -352 224 R270
WINDOW 0 32 56 VTop 2
WINDOW 3 0 56 VBottom 2
SYMATTR InstName RSC
SYMATTR Value 0.12
SYMBOL cap 304 304 R270
WINDOW 0 32 32 VTop 2
WINDOW 3 0 32 VBottom 2
SYMATTR InstName Ct
SYMATTR Value 680p
SYMBOL schottky 560 224 R270
WINDOW 0 32 32 VTop 2
WINDOW 3 0 32 VBottom 2
SYMATTR InstName D1
SYMATTR Value 1N5819
SYMATTR Description Diode
SYMATTR Type diode
SYMBOL ind2 64 48 R270
WINDOW 0 32 56 VTop 2
WINDOW 3 4 56 VBottom 2
SYMATTR InstName L
SYMATTR Value 100µ
SYMATTR SpiceLine Rser=100m
SYMATTR Type ind
SYMBOL res 1088 240 R0
SYMATTR InstName R2
SYMATTR Value 7500
SYMBOL res 1088 448 R0
SYMATTR InstName R1
SYMATTR Value 1200
SYMBOL res 1360 224 R0
SYMATTR InstName R0
SYMATTR Value 400
SYMBOL mc34063 176 224 R0
WINDOW 3 -112 176 Left 2
WINDOW 0 -95 -128 Left 2
SYMATTR InstName U1
SYMBOL polcap -384 352 R0
SYMATTR InstName C1
SYMATTR Value 220µ
SYMBOL cap 912 256 R0
SYMATTR InstName Co
SYMATTR Value 100n
SYMBOL res -80 112 R90
WINDOW 0 0 56 VBottom 2
WINDOW 3 32 56 VTop 2
SYMATTR InstName R4
SYMATTR Value 100
SYMBOL polcap 768 240 R0
SYMATTR InstName C0
SYMATTR Value 100µ
SYMBOL cap -272 352 R0
SYMATTR InstName C2
SYMATTR Value 100n
TEXT -512 656 Left 2 !.tran 0 10m 0 10u uic
TEXT -512 632 Left 2 !.inc MC34063.lib
TEXT -512 600 Left 2 !;.options Gmin=1e-9 method=Gear
TEXT 0 656 Left 2 !;.step param U list 3.3 4 5 6 7 8
TEXT 0 712 Left 2 !;.step param R0 list 400 500 600 800 1000 1200
