Version 4
SHEET 1 1572 772
WIRE 336 32 -224 32
WIRE -224 128 -224 32
WIRE -64 128 -224 128
WIRE 336 128 336 32
WIRE 336 128 272 128
WIRE -336 208 -368 208
WIRE -224 208 -224 128
WIRE -224 208 -256 208
WIRE -64 208 -224 208
WIRE 496 208 272 208
WIRE 560 208 496 208
WIRE 784 208 624 208
WIRE 928 208 784 208
WIRE 1104 208 1104 176
WIRE 1104 208 928 208
WIRE 1376 208 1104 208
WIRE 496 240 496 208
WIRE 784 240 784 208
WIRE 1376 240 1376 208
WIRE 928 256 928 208
WIRE 1104 256 1104 208
WIRE -368 288 -368 208
WIRE -368 288 -512 288
WIRE -272 288 -368 288
WIRE -64 288 -272 288
WIRE 304 288 272 288
WIRE 384 288 368 288
WIRE -512 336 -512 288
WIRE 384 336 384 288
WIRE 496 336 496 320
WIRE -368 352 -368 288
WIRE -272 352 -272 288
WIRE -64 368 -128 368
WIRE 336 368 272 368
WIRE 784 368 784 304
WIRE 928 368 928 320
WIRE 1376 368 1376 320
WIRE 1104 384 1104 336
WIRE 1104 384 1056 384
WIRE 336 432 336 368
WIRE 1056 432 1056 384
WIRE 1056 432 336 432
WIRE 1104 464 1104 384
WIRE -512 480 -512 416
WIRE -368 480 -368 416
WIRE -272 480 -272 416
WIRE 1104 560 1104 544
FLAG -512 480 0
FLAG -368 480 0
FLAG 384 336 0
FLAG 784 368 0
FLAG 1104 176 Vo
FLAG 1104 560 0
FLAG 1376 368 0
FLAG 928 368 0
FLAG 496 336 0
FLAG -128 368 Vo
FLAG -272 480 0
SYMBOL voltage -512 320 R0
WINDOW 123 0 0 Left 0
WINDOW 39 24 132 Left 2
SYMATTR InstName V1
SYMATTR Value x
SYMBOL res -352 224 R270
WINDOW 0 32 56 VTop 2
WINDOW 3 0 56 VBottom 2
SYMATTR InstName RSC
SYMATTR Value x
SYMBOL cap 304 304 R270
WINDOW 0 32 32 VTop 2
WINDOW 3 0 32 VBottom 2
SYMATTR InstName Ct
SYMATTR Value x
SYMBOL schottky 624 192 R90
WINDOW 0 0 32 VBottom 2
WINDOW 3 32 32 VTop 2
SYMATTR InstName D1
SYMATTR Value 1N5819
SYMATTR Description Diode
SYMATTR Type diode
SYMBOL ind2 480 224 R0
SYMATTR InstName L
SYMATTR Value x
SYMATTR SpiceLine Rser=100m
SYMATTR Type ind
SYMBOL res 1088 240 R0
SYMATTR InstName R1
SYMATTR Value x
SYMBOL res 1088 448 R0
SYMATTR InstName R2
SYMATTR Value x
SYMBOL res 1360 224 R0
SYMATTR InstName R0
SYMATTR Value x
SYMBOL mc34063 176 224 R0
WINDOW 3 -112 176 Left 2
WINDOW 0 -95 -128 Left 2
SYMATTR InstName U1
SYMBOL polcap -384 352 R0
SYMATTR InstName C1
SYMATTR Value 220µ
SYMBOL cap 912 256 R0
SYMATTR InstName Co
SYMATTR Value 100n
SYMBOL polcap 800 304 R180
WINDOW 0 24 57 Left 2
WINDOW 3 24 8 Left 2
SYMATTR InstName C0
SYMATTR Value 100µ
SYMBOL cap -288 352 R0
SYMATTR InstName C2
SYMATTR Value 100n
TEXT -512 656 Left 2 !.tran 0 10m 0 1u uic
TEXT -512 632 Left 2 !.inc MC34063.lib
TEXT -512 600 Left 2 !;.options Gmin=1e-9 method=Gear
