Version 4
SHEET 1 880 680
WIRE 288 16 0 16
WIRE 704 16 288 16
WIRE 0 48 0 16
WIRE 288 48 288 16
WIRE 704 64 704 16
WIRE 288 144 288 128
WIRE 288 144 224 144
WIRE 416 144 288 144
WIRE 576 144 576 96
WIRE 576 144 480 144
WIRE 608 144 576 144
WIRE -304 192 -304 176
WIRE -304 192 -352 192
WIRE -192 192 -304 192
WIRE 0 192 0 128
WIRE 0 192 -128 192
WIRE 160 192 0 192
WIRE 0 272 0 192
WIRE 224 272 224 240
WIRE 336 272 336 256
WIRE -352 288 -352 272
WIRE -352 400 -352 368
WIRE 0 400 0 352
WIRE 224 400 224 352
WIRE 336 400 336 336
WIRE 608 400 608 224
WIRE 704 400 704 144
FLAG -352 400 0
FLAG 0 400 0
FLAG 224 400 0
FLAG 608 400 0
FLAG 336 400 0
FLAG 704 400 0
FLAG 576 96 wy
FLAG -304 176 we
SYMBOL npn 160 144 R0
SYMATTR InstName Q1
SYMATTR Value BC547C
SYMBOL res -368 176 R0
SYMATTR InstName Rg
SYMATTR Value 8.2k
SYMBOL res -16 256 R0
SYMATTR InstName RB2
SYMATTR Value 75k
SYMBOL res -16 32 R0
SYMATTR InstName RB1
SYMATTR Value 160k
SYMBOL res 272 32 R0
SYMATTR InstName RC
SYMATTR Value 1.8k
SYMBOL res 208 256 R0
SYMATTR InstName RE
SYMATTR Value 2k
SYMBOL res 592 128 R0
SYMATTR InstName RL
SYMATTR Value 5.6k
SYMBOL cap -128 176 R90
WINDOW 0 0 32 VBottom 2
WINDOW 3 32 32 VTop 2
SYMATTR InstName C1
SYMATTR Value 100n
SYMBOL cap 480 128 R90
WINDOW 0 0 32 VBottom 2
WINDOW 3 32 32 VTop 2
SYMATTR InstName C2
SYMATTR Value 100n
SYMBOL cap 320 272 R0
SYMATTR InstName CE
SYMATTR Value 0.0001
SYMBOL voltage -352 272 R0
WINDOW 3 38 111 Left 2
WINDOW 123 54 64 Left 2
WINDOW 39 0 0 Left 0
WINDOW 0 53 30 Left 2
SYMATTR Value SINE(0 0.02 10k)
SYMATTR Value2 AC 1
SYMATTR InstName V1
SYMBOL voltage 704 48 R0
SYMATTR InstName Vcc
SYMATTR Value 8.8
TEXT -1072 128 Left 2 !;.op we
TEXT -1064 200 Left 2 !;.tran 0 2s 1.9998s 10m
TEXT -1072 64 Left 2 !.ac dec 100 1 20meg
